Version 4.1
SHEET 1 880 680
WIRE 160 -80 80 -80
WIRE 80 -16 80 -80
WIRE 80 64 -176 64
WIRE 352 80 320 80
WIRE 160 112 160 -80
WIRE 32 128 -80 128
WIRE 320 128 320 80
WIRE 320 128 256 128
WIRE 112 144 80 144
WIRE 352 160 256 160
WIRE 32 176 32 128
WIRE 112 176 32 176
WIRE -176 208 -176 64
WIRE -80 208 -176 208
WIRE 336 208 256 208
WIRE 160 256 160 224
WIRE 160 256 64 256
WIRE 224 288 224 224
WIRE 224 288 192 288
WIRE 224 304 224 288
WIRE -176 320 -176 208
WIRE 192 336 192 288
WIRE 192 336 64 336
FLAG 224 304 0
FLAG -176 320 0
FLAG 80 144 0
SYMBOL AD620 144 128 R0
SYMATTR InstName U1
SYMBOL res 336 64 R0
SYMATTR InstName R1
SYMATTR Value 2k
SYMBOL voltage 80 -32 R0
WINDOW 123 0 0 Left 0
WINDOW 39 0 0 Left 0
SYMATTR InstName V2
SYMATTR Value 5
SYMBOL voltage -80 112 R0
WINDOW 123 0 0 Left 0
WINDOW 39 0 0 Left 0
SYMATTR InstName V1
SYMATTR Value SINE(0 0.01 500)
SYMBOL voltage 64 240 R0
SYMATTR InstName V3
SYMATTR Value -5
TEXT 56 -192 Left 2 !.include AD620.cir
TEXT -176 328 Left 2 !.tran 0 10m 0 1u
